Ffdpic-pie-1.d	_head=1.6;_expand=
Ffdpic-pie-2.d	_head=1.7;_expand=
Ffdpic-pie-5.d	_head=1.2;_expand=
Ffdpic-pie-6-fail.d	_head=1.2;_expand=
Ffdpic-pie-6.d	_head=1.7;_expand=
Ffdpic-pie-7.d	_head=1.6;_expand=
Ffdpic-pie-8.d	_head=1.7;_expand=
Ffdpic-shared-1.d	_head=1.6;_expand=
Ffdpic-shared-2-fail.d	_head=1.2;_expand=
Ffdpic-shared-2.d	_head=1.6;_expand=
Ffdpic-shared-3.d	_head=1.6;_expand=
Ffdpic-shared-4.d	_head=1.7;_expand=
Ffdpic-shared-5.d	_head=1.6;_expand=
Ffdpic-shared-6-fail.d	_head=1.2;_expand=
Ffdpic-shared-6.d	_head=1.8;_expand=
Ffdpic-shared-7.d	_head=1.6;_expand=
Ffdpic-shared-8-fail.d	_head=1.3;_expand=
Ffdpic-shared-8.d	_head=1.6;_expand=
Ffdpic-shared-local-2.d	_head=1.6;_expand=
Ffdpic-shared-local-8.d	_head=1.6;_expand=
Ffdpic-static-1.d	_head=1.5;_expand=
Ffdpic-static-2.d	_head=1.5;_expand=
Ffdpic-static-5.d	_head=1.2;_expand=
Ffdpic-static-6.d	_head=1.5;_expand=
Ffdpic-static-7.d	_head=1.5;_expand=
Ffdpic-static-8.d	_head=1.5;_expand=
Ffdpic.exp	_head=1.6;_expand=
Ffdpic1.s	_head=1.1;_expand=
Ffdpic2.ldv	_head=1.1;_expand=
Ffdpic2.s	_head=1.1;_expand=
Ffdpic2min.ldv	_head=1.1;_expand=
Ffdpic3.s	_head=1.1;_expand=
Ffdpic4.s	_head=1.1;_expand=
Ffdpic5.s	_head=1.1;_expand=
Ffdpic6.ldv	_head=1.1;_expand=
Ffdpic6.s	_head=1.1;_expand=
Ffdpic7.s	_head=1.1;_expand=
Ffdpic8.ldv	_head=1.1;_expand=
Ffdpic8.s	_head=1.1;_expand=
Ffdpic8min.ldv	_head=1.1;_expand=
Ffr450-link.d	_head=1.2;_expand=
Ffr450-linka.s	_head=1.1;_expand=
Ffr450-linkb.s	_head=1.1;_expand=
Ffr450-linkc.s	_head=1.1;_expand=
Ffrv-elf.exp	_head=1.2;_expand=
Ftls-1-dep.s	_head=1.1;_expand=
Ftls-1-shared.lds	_head=1.1;_expand=
Ftls-1.s	_head=1.1;_expand=
Ftls-2.s	_head=1.1;_expand=
Ftls-3.s	_head=1.1;_expand=
Ftls-dynamic-1.d	_head=1.3;_expand=
Ftls-dynamic-2.d	_head=1.3;_expand=
Ftls-dynamic-3.d	_head=1.3;_expand=
Ftls-initial-shared-2.d	_head=1.3;_expand=
Ftls-pie-1.d	_head=1.3;_expand=
Ftls-pie-3.d	_head=1.3;_expand=
Ftls-relax-dynamic-1.d	_head=1.3;_expand=
Ftls-relax-dynamic-2.d	_head=1.3;_expand=
Ftls-relax-dynamic-3.d	_head=1.3;_expand=
Ftls-relax-initial-shared-2.d	_head=1.3;_expand=
Ftls-relax-pie-1.d	_head=1.3;_expand=
Ftls-relax-pie-3.d	_head=1.3;_expand=
Ftls-relax-shared-1.d	_head=1.3;_expand=
Ftls-relax-shared-2.d	_head=1.3;_expand=
Ftls-relax-shared-3.d	_head=1.3;_expand=
Ftls-relax-static-1.d	_head=1.2;_expand=
Ftls-relax-static-3.d	_head=1.2;_expand=
Ftls-shared-1-fail.d	_head=1.2;_expand=
Ftls-shared-1.d	_head=1.3;_expand=
Ftls-shared-2.d	_head=1.3;_expand=
Ftls-shared-3.d	_head=1.3;_expand=
Ftls-static-1.d	_head=1.3;_expand=
Ftls-static-3.d	_head=1.3;_expand=
Ftls.exp	_head=1.4;_expand=
Ffdpic-pie-8-fail.d	_head=1.2;_attic=;_expand=
